$ *******************************************************************
$  Abaqus/toNastran Release 6.14-1
$
$   reading Abaqus input: Job-1.inp
$ creating Nastran input: Job-1.bdf
$ writing diagnostics to: Job-1.log
$
$----------------------------------------------
$The following Abaqus keywords were recognized:
$            keyword number
$------------------- ------
$           boundary      1
$             dsload      1
$            elastic      1
$            element      1
$              elset      4
$            endstep      1
$            heading      1
$           material      1
$               node      1
$               nset      3
$       solidsection      1
$             static      1
$               step      1
$            surface      1
$             system      1
$-------------------------------------------
$The following Abaqus keywords were ignored:
$            keyword number
$------------------- ------
$             output      2
$           preprint      1
$            restart      1
$
SOL 101
CEND
SPC = 2001
LOAD = 3001
BEGIN BULK
$ -----|-------|-------|-------|-------|-------|-------|-------|-------|
$ next 101 lines from NSET=SET-2
SPC*                2001               1             246   0.000000e+000
SPC*                2001               2             246   0.000000e+000
SPC*                2001               3             246   0.000000e+000
SPC*                2001               4             246   0.000000e+000
SPC*                2001               5             246   0.000000e+000
SPC*                2001               6             246   0.000000e+000
SPC*                2001               7             246   0.000000e+000
SPC*                2001               8             246   0.000000e+000
SPC*                2001               9             246   0.000000e+000
SPC*                2001              10             246   0.000000e+000
SPC*                2001              11             246   0.000000e+000
SPC*                2001              12             246   0.000000e+000
SPC*                2001              13             246   0.000000e+000
SPC*                2001              14             246   0.000000e+000
SPC*                2001              15             246   0.000000e+000
SPC*                2001              16             246   0.000000e+000
SPC*                2001              17             246   0.000000e+000
SPC*                2001              18             246   0.000000e+000
SPC*                2001              19             246   0.000000e+000
SPC*                2001              20             246   0.000000e+000
$ ... 81 like lines cut
$ -----|-------|-------|-------|-------|-------|-------|-------|-------|
$ next 50 lines from ELSET=SURF-1
PLOAD4*             3001               2   2.500000e+000
*                                                      0               0
PLOAD4*             3001             102   2.500000e+000
*                                                      0               0
PLOAD4*             3001             202   2.500000e+000
*                                                      0               0
PLOAD4*             3001             302   2.500000e+000
*                                                      0               0
PLOAD4*             3001             402   2.500000e+000
*                                                      0               0
PLOAD4*             3001             502   2.500000e+000
*                                                      0               0
PLOAD4*             3001             602   2.500000e+000
*                                                      0               0
PLOAD4*             3001             702   2.500000e+000
*                                                      0               0
PLOAD4*             3001             802   2.500000e+000
*                                                      0               0
PLOAD4*             3001             902   2.500000e+000
*                                                      0               0
PLOAD4*             3001            1002   2.500000e+000
*                                                      0               0
PLOAD4*             3001            1102   2.500000e+000
*                                                      0               0
PLOAD4*             3001            1202   2.500000e+000
*                                                      0               0
PLOAD4*             3001            1302   2.500000e+000
*                                                      0               0
PLOAD4*             3001            1402   2.500000e+000
*                                                      0               0
PLOAD4*             3001            1502   2.500000e+000
*                                                      0               0
PLOAD4*             3001            1602   2.500000e+000
*                                                      0               0
PLOAD4*             3001            1702   2.500000e+000
*                                                      0               0
PLOAD4*             3001            1802   2.500000e+000
*                                                      0               0
PLOAD4*             3001            1902   2.500000e+000
*                                                      0               0
$ ... 60 like lines cut
$
$ -----|-------|-------|-------|-------|-------|-------|-------|-------|
$ GRIDs defined in local coordinates
$ -----|-------|-------|-------|-------|-------|-------|-------|-------|
GRID*                  1                   5.000000e+001   0.000000e+000
*          0.000000e+000                
GRID*                  2                   5.010000e+001   0.000000e+000
*          0.000000e+000                
GRID*                  3                   5.020000e+001   0.000000e+000
*          0.000000e+000                
GRID*                  4                   5.030000e+001   0.000000e+000
*          0.000000e+000                
GRID*                  5                   5.040000e+001   0.000000e+000
*          0.000000e+000                
GRID*                  6                   5.050000e+001   0.000000e+000
*          0.000000e+000                
GRID*                  7                   5.060000e+001   0.000000e+000
*          0.000000e+000                
GRID*                  8                   5.070000e+001   0.000000e+000
*          0.000000e+000                
GRID*                  9                   5.080000e+001   0.000000e+000
*          0.000000e+000                
GRID*                 10                   5.090000e+001   0.000000e+000
*          0.000000e+000                
GRID*                 11                   5.100000e+001   0.000000e+000
*          0.000000e+000                
GRID*                 12                   5.110000e+001   0.000000e+000
*          0.000000e+000                
GRID*                 13                   5.120000e+001   0.000000e+000
*          0.000000e+000                
GRID*                 14                   5.130000e+001   0.000000e+000
*          0.000000e+000                
GRID*                 15                   5.140000e+001   0.000000e+000
*          0.000000e+000                
GRID*                 16                   5.150000e+001   0.000000e+000
*          0.000000e+000                
GRID*                 17                   5.160000e+001   0.000000e+000
*          0.000000e+000                
GRID*                 18                   5.170000e+001   0.000000e+000
*          0.000000e+000                
GRID*                 19                   5.180000e+001   0.000000e+000
*          0.000000e+000                
GRID*                 20                   5.190000e+001   0.000000e+000
*          0.000000e+000                
$ ... 20362 like lines cut
$
$ MAT1 from material MATERIAL-1
MAT1*                  1   2.000000e+005                   3.000000e-001
*          0.000000e+000   0.000000e+000   0.000000e+000   0.000000e+000
$ -----|-------|-------|-------|-------|-------|-------|-------|-------|
ENDDATA
