*Heading
** Job name: Job-1 Model name: Model-1
** Generated by: Abaqus/CAE 6.14-1
*Preprint, echo=NO, model=NO, history=NO, contact=NO
**
** PARTS
**
*Part, name=Part-1
*Node
      1,          50.,           0.
      2,         50.5,           0.
      3,          51.,           0.
      4,         51.5,           0.
      5,          52.,           0.
      6,         52.5,           0.
      7,          53.,           0.
      8,         53.5,           0.
      9,          54.,           0.
     10,         54.5,           0.
     11,          55.,           0.
     12,          50.,          0.5
     13,         50.5,          0.5
     14,          51.,          0.5
     15,         51.5,          0.5
     16,          52.,          0.5
     17,         52.5,          0.5
     18,          53.,          0.5
     19,         53.5,          0.5
     20,          54.,          0.5
** ... 421 like lines cut
*Element, type=CAX6M
  1,   1,   2,  13, 122, 123, 124
  2,  13,  12,   1, 125, 126, 124
  3,   2,   3,  14, 127, 128, 129
  4,  14,  13,   2, 130, 123, 129
  5,   3,   4,  15, 131, 132, 133
  6,  15,  14,   3, 134, 128, 133
  7,   4,   5,  16, 135, 136, 137
  8,  16,  15,   4, 138, 132, 137
  9,   5,   6,  17, 139, 140, 141
 10,  17,  16,   5, 142, 136, 141
 11,   6,   7,  18, 143, 144, 145
 12,  18,  17,   6, 146, 140, 145
 13,   7,   8,  19, 147, 148, 149
 14,  19,  18,   7, 150, 144, 149
 15,   8,   9,  20, 151, 152, 153
 16,  20,  19,   8, 154, 148, 153
 17,   9,  10,  21, 155, 156, 157
 18,  21,  20,   9, 158, 152, 157
 19,  10,  11,  22, 159, 160, 161
 20,  22,  21,  10, 162, 156, 161
** ... 180 like lines cut
*Nset, nset=_PickedSet6, internal, generate
   1,  441,    1
*Elset, elset=_PickedSet6, internal, generate
   1,  200,    1
*Nset, nset=BC_Esq
   1,  12,  23,  34,  45,  56,  67,  78,  89, 100, 111, 126, 166, 197, 228, 259
 290, 321, 352, 383, 414
** Section: Section-1
*Solid Section, elset=_PickedSet6, material=Material-1
,
*End Part
**  
**
** ASSEMBLY
**
*Assembly, name=Assembly
**  
*Instance, name=Part-1-1, part=Part-1
*End Instance
**  
*Nset, nset=BCbaixo, instance=Part-1-1
   1,   2,   3,   4,   5,   6,   7,   8,   9,  10,  11, 122, 127, 131, 135, 139
 143, 147, 151, 155, 159
*Elset, elset=BCbaixo, instance=Part-1-1, generate
  1,  19,   2
*Nset, nset=Set-2, instance=Part-1-1
   1,   2,   3,   4,   5,   6,   7,   8,   9,  10,  11, 122, 127, 131, 135, 139
 143, 147, 151, 155, 159
*Elset, elset=Set-2, instance=Part-1-1, generate
  1,  19,   2
*End Assembly
** 
** MATERIALS
** 
*Material, name=Material-1
*Elastic
200000., 0.3
** ----------------------------------------------------------------
** 
** STEP: Step-1
** 
*Step, name=Step-1, nlgeom=NO
*Static
1., 1., 1e-05, 1.
** 
** BOUNDARY CONDITIONS
** 
** Name: BC-1 Type: Symmetry/Antisymmetry/Encastre
*Boundary
Set-2, YSYMM
** 
** LOADS
** 
** Name: Load-1   Type: Concentrated force
*Cload
Part-1-1.BC_Esq, 1, 100.
** 
** OUTPUT REQUESTS
** 
*Restart, write, frequency=0
** 
** FIELD OUTPUT: F-Output-1
** 
*Output, field, variable=PRESELECT
** 
** HISTORY OUTPUT: H-Output-1
** 
*Output, history, variable=PRESELECT
*End Step
