*Heading
** Job name: Job-1 Model name: Model-1
** Generated by: Abaqus/CAE 6.14-1
*Preprint, echo=NO, model=NO, history=NO, contact=NO
**
** PARTS
**
*Part, name=Part-1
*Node
      1,          50.,           0.
      2,        50.25,           0.
      3,         50.5,           0.
      4,        50.75,           0.
      5,          51.,           0.
      6,        51.25,           0.
      7,         51.5,           0.
      8,        51.75,           0.
      9,          52.,           0.
     10,        52.25,           0.
     11,         52.5,           0.
     12,        52.75,           0.
     13,          53.,           0.
     14,        53.25,           0.
     15,         53.5,           0.
     16,        53.75,           0.
     17,          54.,           0.
     18,        54.25,           0.
     19,         54.5,           0.
     20,        54.75,           0.
** ... 1661 like lines cut
*Element, type=CAX6M
  1,    1,    2,   23,  442,  443,  444
  2,   23,   22,    1,  445,  446,  444
  3,    2,    3,   24,  447,  448,  449
  4,   24,   23,    2,  450,  443,  449
  5,    3,    4,   25,  451,  452,  453
  6,   25,   24,    3,  454,  448,  453
  7,    4,    5,   26,  455,  456,  457
  8,   26,   25,    4,  458,  452,  457
  9,    5,    6,   27,  459,  460,  461
 10,   27,   26,    5,  462,  456,  461
 11,    6,    7,   28,  463,  464,  465
 12,   28,   27,    6,  466,  460,  465
 13,    7,    8,   29,  467,  468,  469
 14,   29,   28,    7,  470,  464,  469
 15,    8,    9,   30,  471,  472,  473
 16,   30,   29,    8,  474,  468,  473
 17,    9,   10,   31,  475,  476,  477
 18,   31,   30,    9,  478,  472,  477
 19,   10,   11,   32,  479,  480,  481
 20,   32,   31,   10,  482,  476,  481
** ... 780 like lines cut
*Nset, nset=_PickedSet6, internal, generate
    1,  1681,     1
*Elset, elset=_PickedSet6, internal, generate
   1,  800,    1
*Nset, nset=BC_Esq
    1,   22,   43,   64,   85,  106,  127,  148,  169,  190,  211,  232,  253,  274,  295,  316
  337,  358,  379,  400,  421,  446,  526,  587,  648,  709,  770,  831,  892,  953, 1014, 1075
 1136, 1197, 1258, 1319, 1380, 1441, 1502, 1563, 1624
** Section: Section-1
*Solid Section, elset=_PickedSet6, material=Material-1
,
*End Part
**  
**
** ASSEMBLY
**
*Assembly, name=Assembly
**  
*Instance, name=Part-1-1, part=Part-1
*End Instance
**  
*Nset, nset=BCbaixo, instance=Part-1-1
   1,   2,   3,   4,   5,   6,   7,   8,   9,  10,  11,  12,  13,  14,  15,  16
  17,  18,  19,  20,  21, 442, 447, 451, 455, 459, 463, 467, 471, 475, 479, 483
 487, 491, 495, 499, 503, 507, 511, 515, 519
*Elset, elset=BCbaixo, instance=Part-1-1, generate
  1,  39,   2
*Nset, nset=Set-2, instance=Part-1-1
   1,   2,   3,   4,   5,   6,   7,   8,   9,  10,  11,  12,  13,  14,  15,  16
  17,  18,  19,  20,  21, 442, 447, 451, 455, 459, 463, 467, 471, 475, 479, 483
 487, 491, 495, 499, 503, 507, 511, 515, 519
*Elset, elset=Set-2, instance=Part-1-1, generate
  1,  39,   2
*Nset, nset=Upper, instance=Part-1-1
  421,  422,  423,  424,  425,  426,  427,  428,  429,  430,  431,  432,  433,  434,  435,  436
  437,  438,  439,  440,  441, 1623, 1627, 1630, 1633, 1636, 1639, 1642, 1645, 1648, 1651, 1654
 1657, 1660, 1663, 1666, 1669, 1672, 1675, 1678, 1681
*Elset, elset=Upper, instance=Part-1-1, generate
 762,  800,    2
*Elset, elset=_Surf-1_S2, internal, instance=Part-1-1, generate
   2,  762,   40
*Surface, type=ELEMENT, name=Surf-1
_Surf-1_S2, S2
*End Assembly
** 
** MATERIALS
** 
*Material, name=Material-1
*Elastic
200000., 0.3
** ----------------------------------------------------------------
** 
** STEP: Step-1
** 
*Step, name=Step-1, nlgeom=NO
*Static
1., 1., 1e-05, 1.
** 
** BOUNDARY CONDITIONS
** 
** Name: BC-1 Type: Displacement/Rotation
*Boundary
BCbaixo, 2, 2
** Name: BC-2 Type: Displacement/Rotation
*Boundary
Upper, 2, 2
** 
** LOADS
** 
** Name: Load-1   Type: Concentrated force
*Cload
Part-1-1.BC_Esq, 1, 2.5
** 
** OUTPUT REQUESTS
** 
*Restart, write, frequency=0
** 
** FIELD OUTPUT: F-Output-1
** 
*Output, field, variable=PRESELECT
** 
** HISTORY OUTPUT: H-Output-1
** 
*Output, history, variable=PRESELECT
*End Step
