*Heading
** Job name: Viguinha Model name: Model-1
** Generated by: Abaqus/CAE 6.14-1
*Preprint, echo=NO, model=NO, history=NO, contact=NO
**
** PARTS
**
*Part, name=Part-1
*Node
      1,          35.,           5.
      2,          34.,           5.
      3,          33.,           5.
      4,          32.,           5.
      5,          31.,           5.
      6,          30.,           5.
      7,          29.,           5.
      8,          28.,           5.
      9,          27.,           5.
     10,          26.,           5.
     11,          25.,           5.
     12,          24.,           5.
     13,          23.,           5.
     14,          22.,           5.
     15,          21.,           5.
     16,          20.,           5.
     17,          19.,           5.
     18,          18.,           5.
     19,          17.,           5.
     20,          16.,           5.
** ... 761 like lines cut
*Element, type=CPE6M
  1,   1,   2,  38, 217, 218, 219
  2,  38,  37,   1, 220, 221, 219
  3,   2,   3,  39, 222, 223, 224
  4,  39,  38,   2, 225, 218, 224
  5,   3,   4,  40, 226, 227, 228
  6,  40,  39,   3, 229, 223, 228
  7,   4,   5,  41, 230, 231, 232
  8,  41,  40,   4, 233, 227, 232
  9,   5,   6,  42, 234, 235, 236
 10,  42,  41,   5, 237, 231, 236
 11,   6,   7,  43, 238, 239, 240
 12,  43,  42,   6, 241, 235, 240
 13,   7,   8,  44, 242, 243, 244
 14,  44,  43,   7, 245, 239, 244
 15,   8,   9,  45, 246, 247, 248
 16,  45,  44,   8, 249, 243, 248
 17,   9,  10,  46, 250, 251, 252
 18,  46,  45,   9, 253, 247, 252
 19,  10,  11,  47, 254, 255, 256
 20,  47,  46,  10, 257, 251, 256
** ... 330 like lines cut
*Nset, nset=Set-4, generate
   1,  781,    1
*Elset, elset=Set-4, generate
   1,  350,    1
*Nset, nset=Set-2
   1,  37,  73, 109, 145, 181, 221, 361, 467, 573, 679
** Section: Section-1
*Solid Section, elset=Set-4, material=Material-1, ref node=Part-1-RefPt_
1., 
*End Part
**  
**
** ASSEMBLY
**
*Assembly, name=Assembly
**  
*Instance, name=Part-1-1, part=Part-1
*End Instance
**  
*Nset, nset=Bound, instance=Part-1-1
  36,  72, 108, 144, 180, 216, 355, 461, 567, 673, 779
*Elset, elset=Bound, instance=Part-1-1, generate
  69,  349,   70
*Nset, nset=Set-2, instance=Part-1-1
  36,  72, 108, 144, 180, 216, 355, 461, 567, 673, 779
*Elset, elset=Set-2, instance=Part-1-1, generate
  69,  349,   70
*End Assembly
** 
** MATERIALS
** 
*Material, name=Material-1
*Elastic
200000., 0.3
** 
** BOUNDARY CONDITIONS
** 
** Name: BC-1 Type: Displacement/Rotation
*Boundary
Bound, 1, 1
Bound, 2, 2
** ----------------------------------------------------------------
** 
** STEP: Step-1
** 
*Step, name=Step-1, nlgeom=NO
*Static
1., 1., 1e-05, 1.
** 
** LOADS
** 
** Name: Load-1   Type: Concentrated force
*Cload
Part-1-1.Set-2, 2, -25.
** 
** OUTPUT REQUESTS
** 
*Restart, write, frequency=0
** 
** FIELD OUTPUT: F-Output-1
** 
*Output, field, variable=PRESELECT
** 
** HISTORY OUTPUT: H-Output-1
** 
*Output, history, variable=PRESELECT
*End Step
