*Heading
 Alo
** Job name: Job-1 Model name: Model-1
** Generated by: Abaqus/CAE 6.14-1
*Preprint, echo=NO, model=NO, history=NO, contact=NO
** ----------------------------------------------------------------
** 
** PART INSTANCE: Part-1-1
** 
*Node
      1,           0.,           0.
      2,           0.,         -10.
      3,           5.,         -10.
      4,           5.,          -1.
      5,   5.29289341, -0.292893231
      6,           6.,           0.
      7,          35.,           0.
      8,          35.,           5.
      9,           0.,           5.
     10,           0.,          -2.
     11,           0.,          -4.
     12,           0.,          -6.
     13,           0.,          -8.
     14,   1.66666663,         -10.
     15,   3.33333325,         -10.
     16,           5.,  -8.19999981
     17,           5.,   -6.4000001
     18,           5.,   -4.5999999
     19,           5.,  -2.79999995
     20,   33.0666656,           0.
** ... 85 like lines cut
*Element, type=CPS3
  1,  66,  60,   1
  2,  67,  18,  19
  3,  55,   4,   5
  4,  95,  36,  62
  5, 100,  84,  88
  6,  70,  65,  57
  7,  71,  62,  60
  8, 103,  13,  61
  9, 103,  74,  68
 10,  74,  16,  17
 11,  13,   2,  14
 12,  61,  14,  15
 13,  16,  15,   3
 14,  68,  18,  67
 15, 105,  67,  75
 16,  73,  58,  64
 17,  58,  19,   4
 18,  20,   7,  35
 19, 102,  52,  51
 20,  77,  20,  63
** ... 134 like lines cut
** ----------------------------------------------------------------
** 
** PART INSTANCE: Part-1-2
** 
*Node
    106,           0.,           0.
    107,           0.,         -10.
    108,           5.,         -10.
    109,           5.,          -1.
    110,   5.29289341, -0.292893231
    111,           6.,           0.
    112,          35.,           0.
    113,          35.,           5.
    114,           0.,           5.
    115,           0.,          -2.
    116,           0.,          -4.
    117,           0.,          -6.
    118,           0.,          -8.
    119,   1.66666663,         -10.
    120,   3.33333325,         -10.
    121,           5.,  -8.19999981
    122,           5.,   -6.4000001
    123,           5.,   -4.5999999
    124,           5.,  -2.79999995
    125,   33.0666656,           0.
** ... 85 like lines cut
*Element, type=CPS3
155, 171, 165, 106
156, 172, 123, 124
157, 160, 109, 110
158, 200, 141, 167
159, 205, 189, 193
160, 175, 170, 162
161, 176, 167, 165
162, 208, 118, 166
163, 208, 179, 173
164, 179, 121, 122
165, 118, 107, 119
166, 166, 119, 120
167, 121, 120, 108
168, 173, 123, 172
169, 210, 172, 180
170, 178, 163, 169
171, 163, 124, 109
172, 125, 112, 140
173, 207, 157, 156
174, 182, 125, 168
** ... 134 like lines cut
*System
*Nset, nset=Set-1
106,107,114,115,116,117,118,158,159
*Elset, elset=Set-1
 165, 188, 214, 215, 217, 229, 304, 308
*Nset, nset=Set-2
113,
** 
** MATERIALS
** 
*Material, name=Material-1
*Elastic
200000., 0.3
** 
** BOUNDARY CONDITIONS
** 
** Name: BC-1 Type: Displacement/Rotation
*Boundary
Set-1, 1, 1
Set-1, 2, 2
** ----------------------------------------------------------------
** 
** STEP: Step-1
** 
*Step, name=Step-1, nlgeom=NO
*Static
1., 1., 1e-05, 1.
** 
** LOADS
** 
** Name: Load-1   Type: Concentrated force
*Cload
Set-2, 2, -5000.
** 
** OUTPUT REQUESTS
** 
*Restart, write, frequency=0
** 
** FIELD OUTPUT: F-Output-1
** 
*Output, field, variable=PRESELECT
** 
** HISTORY OUTPUT: H-Output-1
** 
*Output, history, variable=PRESELECT
*End Step
